


285314  0  0001  0  0  0  0  0999 V2000
    6.1065  -11.3779    0.0000 C   0  0  0  0  0  0  0  0  0  0  0
    5.1148  -10.4385    0.0000 C   0  0  0  0  0  0  0  0  0  0  0
    6.1065   -9.4990    0.0000 C   0  0  0  0  0  0  0  0  0  0  0
    5.1148   -8.5073    0.0000 C   0  0  0  0  0  0  0  0  0  0  0
    6.1065   -7.5679    0.0000 C   0  0  0  0  0  0  0  0  0  0  0
    5.1148   -6.6284    0.0000 C   0  0  0  0  0  0  0  0  0  0  0
    6.1065   -5.6890    0.0000 C   0  0  0  0  0  0  0  0  0  0  0
    5.1148   -4.7495    0.0000 C   0  0  0  0  0  0  0  0  0  0  0
    6.1065   -3.8100    0.0000 C   0  0  0  0  0  0  0  0  0  0  0
    5.1148   -2.8184    0.0000 C   0  0  0  0  0  0  0  0  0  0  0
    6.1065   -1.8789    0.0000 C   0  0  0  0  0  0  0  0  0  0  0
    5.1148   -0.9395    0.0000 C   0  0  0  0  0  0  0  0  0  0  0
    7.4113  -11.3779    0.0000 C   0  0  0  0  0  0  0  0  0  0  0
    3.8100  -10.4385    0.0000 O   0  0  0  0  0  0  0  0  0  0  0
    7.4113   -9.4990    0.0000 C   0  0  0  0  0  0  0  0  0  0  0
    3.8100   -6.6284    0.0000 O   0  0  0  0  0  0  0  0  0  0  0
    4.8539  -18.4761    0.0000 C   0  0  0  0  0  0  0  0  0  0  0
    7.4113   -5.6890    0.0000 O   0  0  0  0  0  0  0  0  0  0  0
    3.8100   -4.7495    0.0000 C   0  0  0  0  0  0  0  0  0  0  0
    3.8100   -2.8184    0.0000 O   0  0  0  0  0  0  0  0  0  0  0
    7.4113   -1.8789    0.0000 C   0  0  0  0  0  0  0  0  0  0  0
    6.1065    0.0000    0.0000 C   0  0  0  0  0  0  0  0  0  0  0
    3.8100   -0.9395    0.0000 C   0  0  0  0  0  0  0  0  0  0  0
    2.8184    0.0000    0.0000 C   0  0  0  0  0  0  0  0  0  0  0
    1.5136    0.0000    0.0000 O   0  0  0  0  0  0  0  0  0  0  0
    3.1315   -5.4802    0.0000 S   0  0  0  0  0  0  0  0  0  0  0
    4.2798   -4.8017    0.0000 O   0  0  0  0  0  0  0  0  0  0  0
    2.4008   -4.3320    0.0000 O   0  0  0  0  0  0  0  0  0  0  0
    5.0626  -14.9270    0.0000 C   0  0  0  0  0  0  0  0  0  0  0
    4.6973  -16.2318    0.0000 O   0  0  0  0  0  0  0  0  0  0  0
    5.5324  -17.3278    0.0000 C   0  0  0  0  0  0  0  0  0  0  0
    6.8372  -17.3278    0.0000 C   0  0  0  0  0  0  0  0  0  0  0
    7.7245  -16.2318    0.0000 C   0  0  0  0  0  0  0  0  0  0  0
    7.4635  -14.9270    0.0000 C   0  0  0  0  0  0  0  0  0  0  0
    6.3153  -14.3007    0.0000 C   0  0  0  0  0  0  0  0  0  0  0
    6.3153  -12.9959    0.0000 O   0  0  0  0  0  0  0  0  0  0  0
    5.0105  -47.2340    0.0000 C   0  0  0  0  0  0  0  0  0  0  0
    3.9666  -12.9959    0.0000 C   0  0  0  0  0  0  0  0  0  0  0
    3.9666  -14.3007    0.0000 C   0  0  0  0  0  0  0  0  0  0  0
    5.5324  -19.6243    0.0000 C   0  0  0  0  0  0  0  0  0  0  0
    6.8372  -19.6243    0.0000 C   0  0  0  0  0  0  0  0  0  0  0
    7.5157  -18.4761    0.0000 O   0  0  0  0  0  0  0  0  0  0  0
    4.8539  -20.8247    0.0000 O   0  0  0  0  0  0  0  0  0  0  0
    5.5324  -21.9729    0.0000 C   0  0  0  0  0  0  0  0  0  0  0
    6.8372  -21.9729    0.0000 C   0  0  0  0  0  0  0  0  0  0  0
    7.5157  -20.8247    0.0000 C   0  0  0  0  0  0  0  0  0  0  0
    4.8539  -22.9646    0.0000 C   0  0  0  0  0  0  0  0  0  0  0
    5.5324  -23.9562    0.0000 C   0  0  0  0  0  0  0  0  0  0  0
    6.8372  -23.9562    0.0000 C   0  0  0  0  0  0  0  0  0  0  0
    7.5157  -22.9646    0.0000 O   0  0  0  0  0  0  0  0  0  0  0
    4.8539  -25.0001    0.0000 O   0  0  0  0  0  0  0  0  0  0  0
    5.4280  -26.0961    0.0000 C   0  0  0  0  0  0  0  0  0  0  0
    6.7850  -26.0961    0.0000 C   0  0  0  0  0  0  0  0  0  0  0
    7.5157  -25.0001    0.0000 C   0  0  0  0  0  0  0  0  0  0  0
    2.8184  -12.3174    0.0000 O   0  0  0  0  0  0  0  0  0  0  0
    2.8184  -14.9792    0.0000 O   0  0  0  0  0  0  0  0  0  0  0
    8.6117  -14.3007    0.0000 O   0  0  0  0  0  0  0  0  0  0  0
    8.1942  -17.3278    0.0000 C   0  0  0  0  0  0  0  0  0  0  0
    8.1942  -21.9729    0.0000 C   0  0  0  0  0  0  0  0  0  0  0
    3.4969  -22.9646    0.0000 O   0  0  0  0  0  0  0  0  0  0  0
    7.8288  -27.1400    0.0000 O   0  0  0  0  0  0  0  0  0  0  0
    4.7495  -27.0878    0.0000 C   0  0  0  0  0  0  0  0  0  0  0
    5.4280  -28.2360    0.0000 C   0  0  0  0  0  0  0  0  0  0  0
    4.8539  -29.1755    0.0000 C   0  0  0  0  0  0  0  0  0  0  0
    5.5324  -30.3237    0.0000 C   0  0  0  0  0  0  0  0  0  0  0
    3.4447  -27.0878    0.0000 O   0  0  0  0  0  0  0  0  0  0  0
    6.7850  -28.2360    0.0000 O   0  0  0  0  0  0  0  0  0  0  0
    4.8539  -31.5241    0.0000 O   0  0  0  0  0  0  0  0  0  0  0
    5.5324  -32.6724    0.0000 C   0  0  0  0  0  0  0  0  0  0  0
    6.8372  -32.6724    0.0000 C   0  0  0  0  0  0  0  0  0  0  0
    7.5157  -31.5241    0.0000 C   0  0  0  0  0  0  0  0  0  0  0
    6.8372  -30.3237    0.0000 C   0  0  0  0  0  0  0  0  0  0  0
    4.8539  -33.6640    0.0000 C   0  0  0  0  0  0  0  0  0  0  0
    5.5324  -34.6557    0.0000 C   0  0  0  0  0  0  0  0  0  0  0
    6.8372  -34.6557    0.0000 C   0  0  0  0  0  0  0  0  0  0  0
    7.5157  -33.6640    0.0000 O   0  0  0  0  0  0  0  0  0  0  0
    4.8539  -35.7517    0.0000 O   0  0  0  0  0  0  0  0  0  0  0
    5.5324  -36.8477    0.0000 C   0  0  0  0  0  0  0  0  0  0  0
    6.8372  -36.8477    0.0000 C   0  0  0  0  0  0  0  0  0  0  0
    7.5157  -35.7517    0.0000 C   0  0  0  0  0  0  0  0  0  0  0
    4.8539  -37.8394    0.0000 C   0  0  0  0  0  0  0  0  0  0  0
    5.5324  -39.0398    0.0000 C   0  0  0  0  0  0  0  0  0  0  0
    6.8372  -39.0398    0.0000 C   0  0  0  0  0  0  0  0  0  0  0
    7.5157  -37.8394    0.0000 O   0  0  0  0  0  0  0  0  0  0  0
    4.8539  -40.0315    0.0000 O   0  0  0  0  0  0  0  0  0  0  0
    5.5324  -41.1275    0.0000 C   0  0  0  0  0  0  0  0  0  0  0
    6.8372  -41.1275    0.0000 C   0  0  0  0  0  0  0  0  0  0  0
    7.5157  -40.0315    0.0000 C   0  0  0  0  0  0  0  0  0  0  0
    7.5157  -29.1755    0.0000 O   0  0  0  0  0  0  0  0  0  0  0
    8.8727  -29.1755    0.0000 S   0  0  0  0  0  0  0  0  0  0  0
    8.8727  -27.8185    0.0000 O   0  5  0  0  0  0  0  0  0  0  0
   10.1775  -29.1755    0.0000 O   0  0  0  0  0  0  0  0  0  0  0
    8.8727  -30.5325    0.0000 O   0  0  0  0  0  0  0  0  0  0  0
    8.8727  -31.5241    0.0000 O   0  0  0  0  0  0  0  0  0  0  0
    3.4969  -37.8394    0.0000 O   0  0  0  0  0  0  0  0  0  0  0
    8.8727  -40.0315    0.0000 O   0  0  0  0  0  0  0  0  0  0  0
    7.5157  -42.2757    0.0000 O   0  0  0  0  0  0  0  0  0  0  0
    5.0105  -42.0670    0.0000 C   0  0  0  0  0  0  0  0  0  0  0
    3.8100  -42.7455    0.0000 C   0  0  0  0  0  0  0  0  0  0  0
    3.8100  -43.9981    0.0000 C   0  0  0  0  0  0  0  0  0  0  0
    5.0105  -44.6766    0.0000 C   0  0  0  0  0  0  0  0  0  0  0
    6.1587  -43.9981    0.0000 C   0  0  0  0  0  0  0  0  0  0  0
    6.1587  -42.7455    0.0000 O   0  0  0  0  0  0  0  0  0  0  0
    5.0105  -45.9292    0.0000 O   0  0  0  0  0  0  0  0  0  0  0
    6.1587  -46.6077    0.0000 C   0  0  0  0  0  0  0  0  0  0  0
    7.3069  -45.9292    0.0000 C   0  0  0  0  0  0  0  0  0  0  0
    7.3069  -44.6766    0.0000 C   0  0  0  0  0  0  0  0  0  0  0
    5.1148  -12.3174    0.0000 C   0  0  0  0  0  0  0  0  0  0  0
    6.1587  -47.9125    0.0000 C   0  0  0  0  0  0  0  0  0  0  0
    5.0105  -48.5910    0.0000 C   0  0  0  0  0  0  0  0  0  0  0
    6.1587  -49.2695    0.0000 C   0  0  0  0  0  0  0  0  0  0  0
    7.4635  -49.2695    0.0000 C   0  0  0  0  0  0  0  0  0  0  0
    7.8288  -50.5743    0.0000 C   0  0  0  0  0  0  0  0  0  0  0
    9.1336  -50.8875    0.0000 C   0  0  0  0  0  0  0  0  0  0  0
   10.0731  -49.9480    0.0000 C   0  0  0  0  0  0  0  0  0  0  0
    9.7078  -48.6432    0.0000 C   0  0  0  0  0  0  0  0  0  0  0
    8.4551  -48.3300    0.0000 O   0  0  0  0  0  0  0  0  0  0  0
   11.3779  -50.3133    0.0000 O   0  0  0  0  0  0  0  0  0  0  0
   12.3174  -49.3739    0.0000 C   0  0  0  0  0  0  0  0  0  0  0
   11.9520  -48.0691    0.0000 C   0  0  0  0  0  0  0  0  0  0  0
   10.6994  -47.7037    0.0000 C   0  0  0  0  0  0  0  0  0  0  0
    9.4468  -52.1923    0.0000 O   0  0  0  0  0  0  0  0  0  0  0
    6.8894  -51.5138    0.0000 O   0  0  0  0  0  0  0  0  0  0  0
    3.6535  -47.2340    0.0000 O   0  0  0  0  0  0  0  0  0  0  0
    3.6535  -48.5910    0.0000 O   0  0  0  0  0  0  0  0  0  0  0
   13.6222  -49.6870    0.0000 C   0  0  0  0  0  0  0  0  0  0  0
   12.8915  -47.1296    0.0000 O   0  0  0  0  0  0  0  0  0  0  0
   14.5616  -50.6787    0.0000 C   0  0  0  0  0  0  0  0  0  0  0
   15.8664  -50.3133    0.0000 C   0  0  0  0  0  0  0  0  0  0  0
   16.1796  -49.0085    0.0000 C   0  0  0  0  0  0  0  0  0  0  0
   15.2401  -48.0691    0.0000 C   0  0  0  0  0  0  0  0  0  0  0
   13.9353  -48.4344    0.0000 O   0  0  0  0  0  0  0  0  0  0  0
   17.4844  -48.6954    0.0000 O   0  0  0  0  0  0  0  0  0  0  0
   17.8498  -47.3906    0.0000 C   0  0  0  0  0  0  0  0  0  0  0
   16.9103  -46.4511    0.0000 C   0  0  0  0  0  0  0  0  0  0  0
   15.6055  -46.7643    0.0000 C   0  0  0  0  0  0  0  0  0  0  0
   19.1546  -47.0252    0.0000 C   0  0  0  0  0  0  0  0  0  0  0
   19.4677  -45.7726    0.0000 C   0  0  0  0  0  0  0  0  0  0  0
   18.5283  -44.7810    0.0000 C   0  0  0  0  0  0  0  0  0  0  0
   17.2234  -45.1463    0.0000 O   0  0  0  0  0  0  0  0  0  0  0
   20.8247  -45.6160    0.0000 O   0  0  0  0  0  0  0  0  0  0  0
   21.5032  -44.4678    0.0000 C   0  0  0  0  0  0  0  0  0  0  0
   21.0857  -43.2152    0.0000 C   0  0  0  0  0  0  0  0  0  0  0
   19.8331  -42.7455    0.0000 C   0  0  0  0  0  0  0  0  0  0  0
   18.6848  -43.4762    0.0000 C   0  0  0  0  0  0  0  0  0  0  0
   22.8080  -44.7288    0.0000 C   0  0  0  0  0  0  0  0  0  0  0
   23.6953  -43.6849    0.0000 C   0  0  0  0  0  0  0  0  0  0  0
   23.2777  -42.4323    0.0000 C   0  0  0  0  0  0  0  0  0  0  0
   21.9729  -42.1713    0.0000 O   0  0  0  0  0  0  0  0  0  0  0
   25.0001  -43.9459    0.0000 O   0  0  0  0  0  0  0  0  0  0  0
   25.8874  -42.9542    0.0000 C   0  0  0  0  0  0  0  0  0  0  0
   25.4698  -41.7016    0.0000 C   0  0  0  0  0  0  0  0  0  0  0
   24.1128  -41.4407    0.0000 C   0  0  0  0  0  0  0  0  0  0  0
   27.1922  -43.2152    0.0000 C   0  0  0  0  0  0  0  0  0  0  0
   28.0794  -42.1713    0.0000 C   0  0  0  0  0  0  0  0  0  0  0
   27.6619  -40.9187    0.0000 C   0  0  0  0  0  0  0  0  0  0  0
   26.3049  -40.6578    0.0000 O   0  0  0  0  0  0  0  0  0  0  0
   14.1963  -51.9313    0.0000 O   0  0  0  0  0  0  0  0  0  0  0
   17.1191  -49.9480    0.0000 C   0  0  0  0  0  0  0  0  0  0  0
   14.6660  -45.8248    0.0000 O   0  0  0  0  0  0  0  0  0  0  0
   15.9708  -45.5116    0.0000 C   0  0  0  0  0  0  0  0  0  0  0
   20.4072  -46.7121    0.0000 C   0  0  0  0  0  0  0  0  0  0  0
   20.7203  -41.9104    0.0000 C   0  0  0  0  0  0  0  0  0  0  0
   24.0606  -44.9897    0.0000 C   0  0  0  0  0  0  0  0  0  0  0
   27.9750  -39.6139    0.0000 C   0  0  0  0  0  0  0  0  0  0  0
   29.2799  -39.3008    0.0000 C   0  0  0  0  0  0  0  0  0  0  0
   29.6452  -37.9960    0.0000 C   0  0  0  0  0  0  0  0  0  0  0
   28.6535  -37.0565    0.0000 C   0  0  0  0  0  0  0  0  0  0  0
   27.4009  -37.3697    0.0000 C   0  0  0  0  0  0  0  0  0  0  0
   27.0356  -38.6745    0.0000 O   0  0  0  0  0  0  0  0  0  0  0
   29.0189  -35.7517    0.0000 O   0  0  0  0  0  0  0  0  0  0  0
   28.0794  -34.8122    0.0000 C   0  0  0  0  0  0  0  0  0  0  0
   26.7746  -35.1776    0.0000 C   0  0  0  0  0  0  0  0  0  0  0
   26.4615  -36.4302    0.0000 C   0  0  0  0  0  0  0  0  0  0  0
   28.6014  -33.6118    0.0000 C   0  0  0  0  0  0  0  0  0  0  0
   27.9750  -32.4114    0.0000 C   0  0  0  0  0  0  0  0  0  0  0
   26.6702  -32.1504    0.0000 C   0  0  0  0  0  0  0  0  0  0  0
   25.6786  -33.0377    0.0000 C   0  0  0  0  0  0  0  0  0  0  0
   25.6786  -34.3947    0.0000 O   0  0  0  0  0  0  0  0  0  0  0
   26.4093  -30.8456    0.0000 O   0  0  0  0  0  0  0  0  0  0  0
   25.1567  -30.4281    0.0000 C   0  0  0  0  0  0  0  0  0  0  0
   24.1650  -31.2632    0.0000 C   0  0  0  0  0  0  0  0  0  0  0
   24.4260  -32.6202    0.0000 C   0  0  0  0  0  0  0  0  0  0  0
   24.8957  -29.1233    0.0000 C   0  0  0  0  0  0  0  0  0  0  0
   23.6431  -28.6535    0.0000 C   0  0  0  0  0  0  0  0  0  0  0
   22.5992  -29.5408    0.0000 C   0  0  0  0  0  0  0  0  0  0  0
   22.9124  -30.8456    0.0000 O   0  0  0  0  0  0  0  0  0  0  0
   23.7475  -27.3487    0.0000 O   0  0  0  0  0  0  0  0  0  0  0
   22.8080  -26.3571    0.0000 C   0  0  0  0  0  0  0  0  0  0  0
   21.5554  -26.2527    0.0000 C   0  0  0  0  0  0  0  0  0  0  0
   20.5116  -27.1400    0.0000 C   0  0  0  0  0  0  0  0  0  0  0
   20.4594  -28.4448    0.0000 C   0  0  0  0  0  0  0  0  0  0  0
   21.3466  -29.4364    0.0000 C   0  0  0  0  0  0  0  0  0  0  0
   23.5909  -25.2089    0.0000 C   0  0  0  0  0  0  0  0  0  0  0
   23.0168  -24.0606    0.0000 C   0  0  0  0  0  0  0  0  0  0  0
   21.7120  -23.9562    0.0000 C   0  0  0  0  0  0  0  0  0  0  0
   20.9291  -25.0523    0.0000 O   0  0  0  0  0  0  0  0  0  0  0
   23.7475  -22.9124    0.0000 O   0  0  0  0  0  0  0  0  0  0  0
   23.1734  -21.7120    0.0000 C   0  0  0  0  0  0  0  0  0  0  0
   21.8686  -21.6598    0.0000 C   0  0  0  0  0  0  0  0  0  0  0
   21.0857  -22.7558    0.0000 C   0  0  0  0  0  0  0  0  0  0  0
   23.9041  -20.6159    0.0000 C   0  0  0  0  0  0  0  0  0  0  0
   23.3299  -19.4155    0.0000 C   0  0  0  0  0  0  0  0  0  0  0
   21.9729  -19.3633    0.0000 C   0  0  0  0  0  0  0  0  0  0  0
   21.2422  -20.4594    0.0000 O   0  0  0  0  0  0  0  0  0  0  0
   24.0606  -18.3195    0.0000 O   0  0  0  0  0  0  0  0  0  0  0
   23.4865  -17.1191    0.0000 C   0  0  0  0  0  0  0  0  0  0  0
   22.1817  -17.0147    0.0000 C   0  0  0  0  0  0  0  0  0  0  0
   21.3988  -18.1629    0.0000 C   0  0  0  0  0  0  0  0  0  0  0
   24.1650  -15.9708    0.0000 C   0  0  0  0  0  0  0  0  0  0  0
   23.4865  -14.8226    0.0000 C   0  0  0  0  0  0  0  0  0  0  0
   24.1650  -13.6222    0.0000 C   0  0  0  0  0  0  0  0  0  0  0
   23.4865  -12.4739    0.0000 C   0  0  0  0  0  0  0  0  0  0  0
   24.1650  -11.3257    0.0000 C   0  0  0  0  0  0  0  0  0  0  0
   23.4865  -10.1775    0.0000 C   0  0  0  0  0  0  0  0  0  0  0
   24.1650   -9.0293    0.0000 C   0  0  0  0  0  0  0  0  0  0  0
   23.4865   -7.8288    0.0000 C   0  0  0  0  0  0  0  0  0  0  0
   25.5220  -11.3257    0.0000 C   0  0  0  0  0  0  0  0  0  0  0
   22.1295  -12.4739    0.0000 C   0  0  0  0  0  0  0  0  0  0  0
   22.1295  -14.8226    0.0000 O   0  0  0  0  0  0  0  0  0  0  0
   25.5220  -15.9708    0.0000 O   0  0  0  0  0  0  0  0  0  0  0
   20.6681  -19.3633    0.0000 C   0  0  0  0  0  0  0  0  0  0  0
   20.5116  -21.6598    0.0000 C   0  0  0  0  0  0  0  0  0  0  0
   20.3550  -23.9562    0.0000 C   0  0  0  0  0  0  0  0  0  0  0
   26.0961  -29.4886    0.0000 C   0  0  0  0  0  0  0  0  0  0  0
   27.6097  -31.2110    0.0000 C   0  0  0  0  0  0  0  0  0  0  0
   29.3320  -34.4469    0.0000 C   0  0  0  0  0  0  0  0  0  0  0
   26.0961  -37.7350    0.0000 C   0  0  0  0  0  0  0  0  0  0  0
   28.6535  -38.4657    0.0000 C   0  0  0  0  0  0  0  0  0  0  0
   30.4281  -39.9271    0.0000 O   0  0  0  0  0  0  0  0  0  0  0
    2.6096  -42.0670    0.0000 O   0  0  0  0  0  0  0  0  0  0  0
    2.6096  -44.6766    0.0000 O   0  0  0  0  0  0  0  0  0  0  0
    8.4551  -46.6077    0.0000 O   0  0  0  0  0  0  0  0  0  0  0
    6.4718  -12.3174    0.0000 H   0  0  0  0  0  0  0  0  0  0  0
    7.4635  -13.6744    0.0000 H   0  0  0  0  0  0  0  0  0  0  0
    3.9144  -15.6055    0.0000 H   0  0  0  0  0  0  0  0  0  0  0
    4.1754  -17.3278    0.0000 H   0  0  0  0  0  0  0  0  0  0  0
    8.1942  -19.6243    0.0000 H   0  0  0  0  0  0  0  0  0  0  0
    4.1754  -19.6243    0.0000 H   0  0  0  0  0  0  0  0  0  0  0
    4.1754  -21.9729    0.0000 H   0  0  0  0  0  0  0  0  0  0  0
    4.1754  -23.9562    0.0000 H   0  0  0  0  0  0  0  0  0  0  0
    4.1232  -26.0961    0.0000 H   0  0  0  0  0  0  0  0  0  0  0
    8.1942  -23.9562    0.0000 H   0  0  0  0  0  0  0  0  0  0  0
    4.1754  -30.3237    0.0000 H   0  0  0  0  0  0  0  0  0  0  0
    4.1754  -32.6724    0.0000 H   0  0  0  0  0  0  0  0  0  0  0
    4.1754  -36.8477    0.0000 H   0  0  0  0  0  0  0  0  0  0  0
    4.1754  -34.6557    0.0000 H   0  0  0  0  0  0  0  0  0  0  0
    8.1942  -32.6724    0.0000 H   0  0  0  0  0  0  0  0  0  0  0
    8.1942  -34.6557    0.0000 H   0  0  0  0  0  0  0  0  0  0  0
    8.1942  -36.8477    0.0000 H   0  0  0  0  0  0  0  0  0  0  0
    4.1754  -39.0398    0.0000 H   0  0  0  0  0  0  0  0  0  0  0
    4.1754  -41.1275    0.0000 H   0  0  0  0  0  0  0  0  0  0  0
    8.1942  -39.0398    0.0000 H   0  0  0  0  0  0  0  0  0  0  0
    6.2631  -41.7016    0.0000 H   0  0  0  0  0  0  0  0  0  0  0
    7.4635  -43.6327    0.0000 H   0  0  0  0  0  0  0  0  0  0  0
    3.8100  -45.3029    0.0000 H   0  0  0  0  0  0  0  0  0  0  0
    4.6451  -46.7121    0.0000 H   0  0  0  0  0  0  0  0  0  0  0
    7.4635  -47.9125    0.0000 H   0  0  0  0  0  0  0  0  0  0  0
   12.6305  -50.6787    0.0000 H   0  0  0  0  0  0  0  0  0  0  0
    9.3424  -47.3906    0.0000 H   0  0  0  0  0  0  0  0  0  0  0
   10.4385  -51.2528    0.0000 H   0  0  0  0  0  0  0  0  0  0  0
   12.9437  -48.5388    0.0000 H   0  0  0  0  0  0  0  0  0  0  0
   14.3007  -47.1296    0.0000 H   0  0  0  0  0  0  0  0  0  0  0
   18.7892  -48.3300    0.0000 H   0  0  0  0  0  0  0  0  0  0  0
   17.5888  -43.8415    0.0000 H   0  0  0  0  0  0  0  0  0  0  0
   22.9124  -41.1275    0.0000 H   0  0  0  0  0  0  0  0  0  0  0
   24.7913  -40.5012    0.0000 H   0  0  0  0  0  0  0  0  0  0  0
   26.8268  -40.0837    0.0000 H   0  0  0  0  0  0  0  0  0  0  0
   22.1817  -45.6160    0.0000 H   0  0  0  0  0  0  0  0  0  0  0
   26.5659  -44.1025    0.0000 H   0  0  0  0  0  0  0  0  0  0  0
   29.9584  -36.6912    0.0000 H   0  0  0  0  0  0  0  0  0  0  0
   25.5220  -35.4907    0.0000 H   0  0  0  0  0  0  0  0  0  0  0
   24.5304  -33.7162    0.0000 H   0  0  0  0  0  0  0  0  0  0  0
   24.7913  -28.0272    0.0000 H   0  0  0  0  0  0  0  0  0  0  0
   21.7120  -30.4803    0.0000 H   0  0  0  0  0  0  0  0  0  0  0
   23.2256  -32.2548    0.0000 H   0  0  0  0  0  0  0  0  0  0  0
   20.1984  -26.2527    0.0000 H   0  0  0  0  0  0  0  0  0  0  0
   24.2172  -26.3571    0.0000 H   0  0  0  0  0  0  0  0  0  0  0
   24.3738  -24.0606    0.0000 H   0  0  0  0  0  0  0  0  0  0  0
   24.5304  -21.7120    0.0000 H   0  0  0  0  0  0  0  0  0  0  0
   24.6869  -19.4155    0.0000 H   0  0  0  0  0  0  0  0  0  0  0
   24.8435  -17.1191    0.0000 H   0  0  0  0  0  0  0  0  0  0  0
    1.9833   -6.1587    0.0000 O   0  5  0  0  0  0  0  0  0  0  0
    0.0000   -7.8810    0.0000 Na  0  3  0  0  0  0  0  0  0  0  0
   10.5428  -27.8185    0.0000 Na  0  3  0  0  0  0  0  0  0  0  0
  1108  1  0
  1  2  1  0
  1 13  1  1
  2  3  1  0
  2 14  1  6
  3  4  1  0
  3 15  1  1
  4  5  1  0
  5  6  1  0
  6  7  1  0
  6 16  1  6
  7  8  1  0
  7 18  1  1
  8  9  1  0
  8 19  1  6
  9 10  1  0
 10 11  1  0
 10 20  1  1
 11 12  1  0
 11 21  2  0
 12 22  1  0
 12 23  2  0
 16 26  1  0
 17 31  1  0
 17 40  1  0
 23 24  1  0
 24 25  1  0
 26283  1  0
 26 27  2  0
 26 28  2  0
 29 30  1  0
 29 35  1  0
 29 39  1  0
 29236  1  6
 30 31  1  0
 31 32  1  0
 31237  1  6
 32 33  1  0
 32 42  1  0
 32 58  1  1
 33 34  1  0
 34 35  1  0
 34 57  1  6
 35 36  1  0
 35235  1  1
 36108  1  0
 37105  1  0
 37109  1  0
 37124  1  1
 38 39  1  0
 38 55  1  1
 38108  1  0
 39 56  1  1
 40 41  1  0
 40 43  1  0
 40239  1  6
 41 42  1  0
 41 46  1  0
 41238  1  1
 43 44  1  0
 44 45  1  0
 44 47  1  0
 44240  1  6
 45 46  1  0
 45 50  1  0
 45 59  1  1
 47 48  1  0
 47 60  1  6
 48 49  1  0
 48 51  1  0
 48241  1  6
 49 50  1  0
 49 54  1  0
 49243  1  1
 51 52  1  0
 52 62  1  0
 52 53  1  0
 52242  1  6
 53 54  1  0
 53 61  1  1
 62 63  1  0
 62 66  1  1
 63 64  1  0
 63 67  1  1
 64 65  1  0
 65 68  1  0
 65 72  1  0
 65244  1  6
 68 69  1  0
 69 70  1  0
 69 73  1  0
 69245  1  6
 70 71  1  0
 70 76  1  0
 70248  1  1
 71 72  1  0
 71 94  1  6
 72 89  1  6
 73 74  1  0
 74 75  1  0
 74 77  1  0
 74247  1  6
 75 76  1  0
 75 80  1  0
 75249  1  1
 77 78  1  0
 78 79  1  0
 78 81  1  0
 78246  1  6
 79 80  1  0
 79 84  1  0
 79250  1  1
 81 82  1  0
 81 95  1  6
 82 83  1  0
 82 85  1  0
 82251  1  1
 83 84  1  0
 83 88  1  0
 83253  1  6
 85 86  1  0
 86 87  1  0
 86 98  1  0
 86252  1  1
 87 88  1  0
 87 97  1  1
 88 96  1  6
 89 90  1  0
 90 91  1  0
 90 92  2  0
 90 93  2  0
 98 99  1  0
 98103  1  0
 98254  1  1
 99100  1  0
 99231  1  1
100101  1  0
100232  1  6
101102  1  0
101104  1  0
101256  1  6
102103  1  0
102107  1  0
102255  1  6
104105  1  0
105106  1  0
105257  1  1
106107  1  0
106233  1  1
108234  1  1
109110  1  0
110111  1  0
110125  1  6
111112  1  0
112113  1  0
112117  1  0
112258  1  1
113114  1  0
113123  1  1
114115  1  0
114122  1  6
115116  1  0
115118  1  0
115261  1  6
116117  1  0
116121  1  0
116260  1  6
118119  1  0
119120  1  0
119126  1  0
119259  1  1
120121  1  0
120127  1  1
126128  1  0
126132  1  0
126262  1  1
128129  1  0
128158  1  1
129130  1  0
130131  1  0
130133  1  0
130159  1  6
131132  1  0
131136  1  0
131263  1  1
133134  1  0
134135  1  0
134137  1  0
134264  1  6
135136  1  0
135140  1  0
135161  1  1
136160  1  6
137138  1  0
138139  1  0
138141  1  0
138162  1  6
139140  1  0
139145  1  0
139265  1  1
141142  1  0
142143  1  0
142146  1  0
142269  1  6
143144  1  0
143149  1  0
143163  1  1
144145  1  0
146147  1  0
147148  1  0
147150  1  0
147164  1  6
148149  1  0
148153  1  0
148266  1  1
150151  1  0
151152  1  0
151154  1  0
151270  1  6
152153  1  0
152157  1  0
152267  1  1
154155  1  0
155156  1  0
156157  1  0
156165  1  0
156268  1  1
165166  1  0
165170  1  0
165229  1  1
166167  1  0
166230  1  1
167168  1  0
168169  1  0
168171  1  0
168271  1  6
169170  1  0
169174  1  0
169228  1  1
171172  1  0
172173  1  0
172175  1  0
172227  1  6
173174  1  0
173179  1  0
173272  1  1
175176  1  0
176177  1  0
177178  1  0
177180  1  0
177226  1  6
178179  1  0
178183  1  0
178273  1  1
180181  1  0
181182  1  0
181184  1  0
181225  1  6
182183  1  0
182187  1  0
182276  1  1
184185  1  0
185186  1  0
185188  1  0
185274  1  6
186187  1  0
186193  1  0
186275  1  1
188189  1  0
189190  1  0
189194  1  0
189278  1  6
190191  1  0
190197  1  0
190277  1  1
191192  2  0
192193  1  0
194195  1  0
195196  1  0
195198  1  0
195279  1  6
196197  1  0
196201  1  0
196224  1  1
198199  1  0
199200  1  0
199202  1  0
199280  1  6
200201  1  0
200205  1  0
200223  1  1
202203  1  0
203204  1  0
203206  1  0
203281  1  6
204205  1  0
204209  1  0
204222  1  1
206207  1  0
207208  1  0
207210  1  0
207282  1  6
208209  1  0
210211  1  0
210221  1  6
211212  1  0
211220  1  6
212213  1  0
213214  1  0
213219  1  1
214215  1  0
214218  1  6
215216  1  0
216217  2  0
M  CHG  4  91  -1 283  -1 284   1 285   1
M  END

> <StdInChI>
InChI=1S/C164H258O68S2.2Na/c1-24-26-65(2)68(5)41-74(168)117(179)85-33-36-152(11)106(203-85)55-109-162(21,231-152)64-161(20)105(210-109)51-89-83(220-161)28-25-27-82-99(199-89)59-157(16)108(202-82)56-107-153(12,230-157)39-38-151(10)112(211-107)61-158(17)111(224-151)54-101(176)163(22,232-158)103-32-31-84-90(204-103)53-110-156(15,219-84)62-113-150(9,223-110)37-34-102-155(14,225-113)63-114-164(23,227-102)147(192)149-159(18,226-114)58-81(175)134(218-149)133-79(173)47-93-136(216-133)120(182)119(181)92(200-93)44-72(166)43-76(170)131-77(171)46-94-137(214-131)122(184)124(186)143(207-94)145-126(188)125(187)144-146(217-145)128(190)139-97(208-144)50-88-87(206-139)49-96-138(205-88)127(189)141(229-234(196,197)198)95(201-96)45-75(169)118(180)132-78(172)48-98-140(215-132)129(191)148-160(19,221-98)60-100-91(209-148)52-104-154(13,222-100)57-80(174)135-142(212-104)123(185)121(183)130(213-135)71(8)115(177)67(4)29-30-86(228-233(193,194)195)116(178)69(6)42-73(167)70(7)66(3)35-40-165;;/h24-25,28,35,65,67-69,71-149,165-192H,1,7,26-27,29-34,36-64H2,2-6,8-23H3,(H,193,194,195)(H,196,197,198);;/q;2*+1/p-2/b28-25-,66-35+;;/t65-,67+,68+,69+,71+,72+,73+,74+,75-,76+,77+,78+,79+,80+,81+,82+,83-,84+,85-,86-,87-,88+,89+,90-,91-,92-,93-,94-,95-,96+,97-,98+,99-,100+,101+,102+,103-,104+,105-,106-,107+,108-,109+,110+,111-,112-,113+,114+,115+,116+,117-,118+,119-,120+,121+,122+,123-,124+,125+,126+,127+,128+,129-,130-,131-,132-,133+,134+,135+,136+,137+,138+,139-,140+,141-,142-,143+,144-,145+,146+,147-,148+,149+,150-,151+,152+,153-,154-,155-,156-,157+,158+,159-,160-,161+,162-,163+,164+;;/m0../s1

> <StdInChIKey>
NWQUHAJRFNRIIU-DVGFTKJRSA-L

> <AuxInfo>
1/1/N:217,218,22,15,219,19,21,13,163,227,222,226,58,162,164,225,228,159,59,224,223,229,161,216,192,215,193,191,4,5,154,155,208,145,23,209,144,175,176,24,212,9,109,111,64,107,121,54,73,80,194,17,153,167,202,183,33,129,184,46,174,146,137,201,214,12,3,213,8,11,1,110,10,211,63,37,106,53,120,34,128,186,190,151,207,6,74,75,189,152,40,112,116,102,65,69,79,49,185,41,166,139,156,31,195,203,178,182,199,148,168,173,142,134,2,7,210,62,113,114,38,100,39,99,88,87,71,81,47,108,105,52,119,126,35,115,101,70,78,48,72,29,98,83,86,82,136,44,131,143,172,204,177,32,138,147,181,169,130,45,196,200,165,135,25,125,20,220,67,124,233,61,127,57,158,230,14,18,221,66,123,122,55,232,56,231,96,97,94,95,60,160,27,28,283,91,92,93,188,117,68,187,206,157,76,77,103,84,43,198,179,30,36,104,51,118,85,132,150,197,50,42,149,171,141,133,140,16,89,180,205,170,26,90;284;285/E:(193,194,195)(196,197,198);;/it:im;;/CRV:233.6,234.6;;/rA:285cCCCCCCCCCCCCCOCOCOCOCCCCOSOOCOCCCCCOCCCCCOOCCCCCCOOCCCOOOCCOOCCCCOOOCCCCCCCOOCCCCCCOOCCCOSO-OOOOOOCCCCCOOCCCCCCCCCCCCOOCCCOOOOCOCCCCOOCCCCCCOOCCCCCCCOOCCCCCCOOCOCCCCCCCCCOOCCCCCCCOOCCCCCCOOCCCCCCCCOOCCCCCCOOCCCCCCCCCCCCCOOCCCCCCCCOOOOHHHHHHHHHHHHHHHHHHHHHHHHHHHHHHHHHHHHHHHHHHHHHHHHHO-Na+Na+/rB:s1;s2;s3;s4;s5;s6;s7;s8;s9;s10;s11;P1;N2;P3;N6;;P7;N8;P10;d11;s12;d12;s23;s24;s16;d26;d26;;s29;s17s30;s31;s32;s33;s29s34;s35;;;s29s38;s17;s40;s32s41;s40;s43;s44;s41s45;s44;s47;s48;s45s49;s48;s51;s52;s49s53;P38;P39;N34;P32;P45;N47;P53;s52;s62;s63;s64;P62;P63;s65;s68;s69;s70;s65s71;s69;s73;s74;s70s75;s74;s77;s78;s75s79;s78;s81;s82;s79s83;s82;s85;s86;s83s87;N72;s89;s90;d90;d90;N71;N81;N88;P87;s86;s98;s99;s100;s101;s98s102;s101;s37s104;s105;s102s106;s1s36s38;s37;s109;s110;s111;s112;s113;s114;s115;s112s116;s115;s118;s119;s116s120;N114;P113;P37;N110;s119;P120;s126;s128;s129;s130;s126s131;s130;s133;s134;s131s135;s134;s137;s138;s135s139;s138;s141;s142;s143;s139s144;s142;s146;s147;s143s148;s147;s150;s151;s148s152;s151;s154;s155;s152s156;P128;N130;N136;P135;N138;P143;N147;s156;s165;s166;s167;s168;s165s169;s168;s171;s172;s169s173;s172;s175;s176;s177;s173s178;s177;s180;s181;s178s182;s181;s184;s185;s182s186;s185;s188;s189;s190;d191;s186s192;s189;s194;s195;s190s196;s195;s198;s199;s196s200;s199;s202;s203;s200s204;s203;s206;s207;s204s208;s207;s210;s211;s212;s213;s214;s215;d216;N214;P213;N211;N210;P204;P200;P196;N181;N177;N172;P169;P165;P166;P99;N100;P106;P108;P35;N29;N31;P41;N40;N44;N48;N52;P49;N65;N69;N78;N74;P70;P75;P79;P82;P86;N83;P98;N102;N101;P105;P112;P119;N116;N115;P126;P131;N134;P139;P148;P152;P156;N142;N151;N168;P173;P178;N185;P186;P182;P190;N189;N195;N199;N203;N207;s26;;;/rC:6.1065,-11.3779,0;5.1148,-10.4385,0;6.1065,-9.499,0;5.1148,-8.5073,0;6.1065,-7.5679,0;5.1148,-6.6284,0;6.1065,-5.689,0;5.1148,-4.7495,0;6.1065,-3.81,0;5.1148,-2.8184,0;6.1065,-1.8789,0;5.1148,-.9395,0;7.4113,-11.3779,0;3.81,-10.4385,0;7.4113,-9.499,0;3.81,-6.6284,0;4.8539,-18.4761,0;7.4113,-5.689,0;3.81,-4.7495,0;3.81,-2.8184,0;7.4113,-1.8789,0;6.1065,0,0;3.81,-.9395,0;2.8184,0,0;1.5136,0,0;3.1315,-5.4802,0;4.2798,-4.8017,0;2.4008,-4.332,0;5.0626,-14.927,0;4.6973,-16.2318,0;5.5324,-17.3278,0;6.8372,-17.3278,0;7.7245,-16.2318,0;7.4635,-14.927,0;6.3153,-14.3007,0;6.3153,-12.9959,0;5.0105,-47.234,0;3.9666,-12.9959,0;3.9666,-14.3007,0;5.5324,-19.6243,0;6.8372,-19.6243,0;7.5157,-18.4761,0;4.8539,-20.8247,0;5.5324,-21.9729,0;6.8372,-21.9729,0;7.5157,-20.8247,0;4.8539,-22.9646,0;5.5324,-23.9562,0;6.8372,-23.9562,0;7.5157,-22.9646,0;4.8539,-25.0001,0;5.428,-26.0961,0;6.785,-26.0961,0;7.5157,-25.0001,0;2.8184,-12.3174,0;2.8184,-14.9792,0;8.6117,-14.3007,0;8.1942,-17.3278,0;8.1942,-21.9729,0;3.4969,-22.9646,0;7.8288,-27.14,0;4.7495,-27.0878,0;5.428,-28.236,0;4.8539,-29.1755,0;5.5324,-30.3237,0;3.4447,-27.0878,0;6.785,-28.236,0;4.8539,-31.5241,0;5.5324,-32.6724,0;6.8372,-32.6724,0;7.5157,-31.5241,0;6.8372,-30.3237,0;4.8539,-33.664,0;5.5324,-34.6557,0;6.8372,-34.6557,0;7.5157,-33.664,0;4.8539,-35.7517,0;5.5324,-36.8477,0;6.8372,-36.8477,0;7.5157,-35.7517,0;4.8539,-37.8394,0;5.5324,-39.0398,0;6.8372,-39.0398,0;7.5157,-37.8394,0;4.8539,-40.0315,0;5.5324,-41.1275,0;6.8372,-41.1275,0;7.5157,-40.0315,0;7.5157,-29.1755,0;8.8727,-29.1755,0;8.8727,-27.8185,0;10.1775,-29.1755,0;8.8727,-30.5325,0;8.8727,-31.5241,0;3.4969,-37.8394,0;8.8727,-40.0315,0;7.5157,-42.2757,0;5.0105,-42.067,0;3.81,-42.7455,0;3.81,-43.9981,0;5.0105,-44.6766,0;6.1587,-43.9981,0;6.1587,-42.7455,0;5.0105,-45.9292,0;6.1587,-46.6077,0;7.3069,-45.9292,0;7.3069,-44.6766,0;5.1148,-12.3174,0;6.1587,-47.9125,0;5.0105,-48.591,0;6.1587,-49.2695,0;7.4635,-49.2695,0;7.8288,-50.5743,0;9.1336,-50.8875,0;10.0731,-49.948,0;9.7078,-48.6432,0;8.4551,-48.33,0;11.3779,-50.3133,0;12.3174,-49.3739,0;11.952,-48.0691,0;10.6994,-47.7037,0;9.4468,-52.1923,0;6.8894,-51.5138,0;3.6535,-47.234,0;3.6535,-48.591,0;13.6222,-49.687,0;12.8915,-47.1296,0;14.5616,-50.6787,0;15.8664,-50.3133,0;16.1796,-49.0085,0;15.2401,-48.0691,0;13.9353,-48.4344,0;17.4844,-48.6954,0;17.8498,-47.3906,0;16.9103,-46.4511,0;15.6055,-46.7643,0;19.1546,-47.0252,0;19.4677,-45.7726,0;18.5283,-44.781,0;17.2234,-45.1463,0;20.8247,-45.616,0;21.5032,-44.4678,0;21.0857,-43.2152,0;19.8331,-42.7455,0;18.6848,-43.4762,0;22.808,-44.7288,0;23.6953,-43.6849,0;23.2777,-42.4323,0;21.9729,-42.1713,0;25.0001,-43.9459,0;25.8874,-42.9542,0;25.4698,-41.7016,0;24.1128,-41.4407,0;27.1922,-43.2152,0;28.0794,-42.1713,0;27.6619,-40.9187,0;26.3049,-40.6578,0;14.1963,-51.9313,0;17.1191,-49.948,0;14.666,-45.8248,0;15.9708,-45.5116,0;20.4072,-46.7121,0;20.7203,-41.9104,0;24.0606,-44.9897,0;27.975,-39.6139,0;29.2799,-39.3008,0;29.6452,-37.996,0;28.6535,-37.0565,0;27.4009,-37.3697,0;27.0356,-38.6745,0;29.0189,-35.7517,0;28.0794,-34.8122,0;26.7746,-35.1776,0;26.4615,-36.4302,0;28.6014,-33.6118,0;27.975,-32.4114,0;26.6702,-32.1504,0;25.6786,-33.0377,0;25.6786,-34.3947,0;26.4093,-30.8456,0;25.1567,-30.4281,0;24.165,-31.2632,0;24.426,-32.6202,0;24.8957,-29.1233,0;23.6431,-28.6535,0;22.5992,-29.5408,0;22.9124,-30.8456,0;23.7475,-27.3487,0;22.808,-26.3571,0;21.5554,-26.2527,0;20.5116,-27.14,0;20.4594,-28.4448,0;21.3466,-29.4364,0;23.5909,-25.2089,0;23.0168,-24.0606,0;21.712,-23.9562,0;20.9291,-25.0523,0;23.7475,-22.9124,0;23.1734,-21.712,0;21.8686,-21.6598,0;21.0857,-22.7558,0;23.9041,-20.6159,0;23.3299,-19.4155,0;21.9729,-19.3633,0;21.2422,-20.4594,0;24.0606,-18.3195,0;23.4865,-17.1191,0;22.1817,-17.0147,0;21.3988,-18.1629,0;24.165,-15.9708,0;23.4865,-14.8226,0;24.165,-13.6222,0;23.4865,-12.4739,0;24.165,-11.3257,0;23.4865,-10.1775,0;24.165,-9.0293,0;23.4865,-7.8288,0;25.522,-11.3257,0;22.1295,-12.4739,0;22.1295,-14.8226,0;25.522,-15.9708,0;20.6681,-19.3633,0;20.5116,-21.6598,0;20.355,-23.9562,0;26.0961,-29.4886,0;27.6097,-31.211,0;29.332,-34.4469,0;26.0961,-37.735,0;28.6535,-38.4657,0;30.4281,-39.9271,0;2.6096,-42.067,0;2.6096,-44.6766,0;8.4551,-46.6077,0;6.4718,-12.3174,0;7.4635,-13.6744,0;3.9144,-15.6055,0;4.1754,-17.3278,0;8.1942,-19.6243,0;4.1754,-19.6243,0;4.1754,-21.9729,0;4.1754,-23.9562,0;4.1232,-26.0961,0;8.1942,-23.9562,0;4.1754,-30.3237,0;4.1754,-32.6724,0;4.1754,-36.8477,0;4.1754,-34.6557,0;8.1942,-32.6724,0;8.1942,-34.6557,0;8.1942,-36.8477,0;4.1754,-39.0398,0;4.1754,-41.1275,0;8.1942,-39.0398,0;6.2631,-41.7016,0;7.4635,-43.6327,0;3.81,-45.3029,0;4.6451,-46.7121,0;7.4635,-47.9125,0;12.6305,-50.6787,0;9.3424,-47.3906,0;10.4385,-51.2528,0;12.9437,-48.5388,0;14.3007,-47.1296,0;18.7892,-48.33,0;17.5888,-43.8415,0;22.9124,-41.1275,0;24.7913,-40.5012,0;26.8268,-40.0837,0;22.1817,-45.616,0;26.5659,-44.1025,0;29.9584,-36.6912,0;25.522,-35.4907,0;24.5304,-33.7162,0;24.7913,-28.0272,0;21.712,-30.4803,0;23.2256,-32.2548,0;20.1984,-26.2527,0;24.2172,-26.3571,0;24.3738,-24.0606,0;24.5304,-21.712,0;24.6869,-19.4155,0;24.8435,-17.1191,0;1.9833,-6.1587,0;0,-7.881,0;10.5428,-27.8185,0;

> <Formula>
C164 H256 Na2 O68 S2

> <Mw>
3425.856

> <SMILES>
[C@@H](C)([C@H](O)[C@H](C)CC[C@H](OS(=O)(=O)[O-])[C@H](O)[C@H](C)C[C@@H](O)C(=C)/C(=C/CO)/C)[C@@]1([H])[C@H](O)[C@H](O)[C@@]2([H])[C@]([H])(O1)[C@H](O)C[C@]1(C)O[C@]3([H])C[C@]4(C)O[C@]5([H])C[C@@H](O)[C@@]([H])([C@H](O)[C@@H](O)C[C@@]6([H])[C@H](OS(=O)(=O)[O-])[C@H](O)[C@]7([H])O[C@]8([H])C[C@]9([H])O[C@@]%10([H])[C@H](O)[C@@H](O)[C@]([H])([C@]%11([H])O[C@@]%12([H])C[C@@H](O)[C@@]([H])(O[C@@]%12([H])[C@H](O)[C@H]%11O)[C@H](O)C[C@@H](O)C[C@]%11([H])O[C@@]%12([H])C[C@@H](O)[C@]([H])([C@]%13([H])O[C@]%14([H])[C@H](O)[C@]%15(C)O[C@]%16([H])CC[C@]%17(C)O[C@]%18([H])C[C@]%19([H])O[C@]([H])([C@]%20(C)O[C@]%21(C)C[C@]%22([H])O[C@]%23([H])C[C@]%24([H])O[C@]%25([H])CC=C[C@]%26([H])O[C@]%27(C)C[C@]%28(C)O[C@]%29(C)CC[C@@]([H])([C@@H](O)[C@H](O)C[C@@H](C)[C@@H](C)CC=C)O[C@@]%29([H])C[C@@]%28([H])O[C@@]%27([H])C[C@@]%26([H])O[C@@]%25([H])C[C@@]%24(C)O[C@@]%23(C)CC[C@@]%22(C)O[C@@]%21([H])C[C@H]%20O)CC[C@@]%19([H])O[C@@]%18(C)C[C@@]%17([H])O[C@@]%16(C)C[C@@]%15([H])O[C@@]%14(C)C[C@H]%13O)O[C@@]%12([H])[C@H](O)[C@H]%11O)O[C@]%10([H])[C@H](O)[C@@]9([H])O[C@@]8([H])C[C@@]7([H])O6)O[C@@]5([H])[C@H](O)[C@@]4([H])O[C@@]3([H])C[C@@]1([H])O2.[Na+].[Na+] |c:169|

> <CSID>
25991548

$$$$
